  Page 1                                    Mon Sep  1 23:58:36 2025

  ******************************************************************
  *                           E P A N E T                          *
  *                   Hydraulic and Water Quality                  *
  *                   Analysis for Pipe Networks                   *
  *                         Version 2.2                            *
  ******************************************************************
  
   
      Input Data File ................... temp.inp
      Number of Junctions................ 38
      Number of Reservoirs............... 1
      Number of Tanks ................... 0
      Number of Pipes ................... 38
      Number of Pumps ................... 0
      Number of Valves .................. 0
      Headloss Formula .................. Hazen-Williams
      Nodal Demand Model ................ DDA
      Hydraulic Timestep ................ 1.00 hrs
      Hydraulic Accuracy ................ 0.010000
      Status Check Frequency ............ 2
      Maximum Trials Checked ............ 10
      Damping Limit Threshold ........... 0.000000
      Maximum Trials .................... 100
      Quality Analysis .................. None
      Specific Gravity .................. 1.00
      Relative Kinematic Viscosity ...... 1.00
      Relative Chemical Diffusivity ..... 1.00
      Demand Multiplier ................. 1.00
      Total Duration .................... 8759.00 hrs
      Reporting Criteria:
         No Nodes
         No Links
   
  Analysis begun Mon Sep  1 23:58:36 2025

  WARNING: Negative pressures at 18:00:00 hrs.
   
  WARNING: Negative pressures at 19:00:00 hrs.
   
  WARNING: Negative pressures at 20:00:00 hrs.
   
  WARNING: Negative pressures at 21:00:00 hrs.
   
  WARNING: Negative pressures at 22:00:00 hrs.
   
  WARNING: Negative pressures at 23:00:00 hrs.
   
  WARNING: Negative pressures at 42:00:00 hrs.
   
  WARNING: Negative pressures at 43:00:00 hrs.
   
  WARNING: Negative pressures at 44:00:00 hrs.
   
  WARNING: Negative pressures at 45:00:00 hrs.
   
  WARNING: Negative pressures at 46:00:00 hrs.
   
  WARNING: Negative pressures at 47:00:00 hrs.
   
  WARNING: Negative pressures at 59:00:00 hrs.
   
  WARNING: Negative pressures at 60:00:00 hrs.
   
  WARNING: Negative pressures at 66:00:00 hrs.
   
  WARNING: Negative pressures at 67:00:00 hrs.
   
  WARNING: Negative pressures at 68:00:00 hrs.
   
  WARNING: Negative pressures at 69:00:00 hrs.
   
  WARNING: Negative pressures at 70:00:00 hrs.
   
  WARNING: Negative pressures at 71:00:00 hrs.
   
  WARNING: Negative pressures at 114:00:00 hrs.
   
  WARNING: Negative pressures at 115:00:00 hrs.
   
  WARNING: Negative pressures at 116:00:00 hrs.
   
  WARNING: Negative pressures at 117:00:00 hrs.
   
  WARNING: Negative pressures at 118:00:00 hrs.
   
  WARNING: Negative pressures at 119:00:00 hrs.
   
  WARNING: Negative pressures at 138:00:00 hrs.
   
  WARNING: Negative pressures at 139:00:00 hrs.
   
  WARNING: Negative pressures at 140:00:00 hrs.
   
  WARNING: Negative pressures at 141:00:00 hrs.
   
  WARNING: Negative pressures at 142:00:00 hrs.
   
  WARNING: Negative pressures at 143:00:00 hrs.
   
  WARNING: Negative pressures at 162:00:00 hrs.
   
  WARNING: Negative pressures at 163:00:00 hrs.
   
  WARNING: Negative pressures at 164:00:00 hrs.
   
  WARNING: Negative pressures at 165:00:00 hrs.
   
  WARNING: Negative pressures at 166:00:00 hrs.
   
  WARNING: Negative pressures at 167:00:00 hrs.
   
  WARNING: Negative pressures at 186:00:00 hrs.
   
  WARNING: Negative pressures at 187:00:00 hrs.
   
  WARNING: Negative pressures at 188:00:00 hrs.
   
  WARNING: Negative pressures at 189:00:00 hrs.
   
  WARNING: Negative pressures at 190:00:00 hrs.
   
  WARNING: Negative pressures at 191:00:00 hrs.
   
  WARNING: Negative pressures at 210:00:00 hrs.
   
  WARNING: Negative pressures at 211:00:00 hrs.
   
  WARNING: Negative pressures at 212:00:00 hrs.
   
  WARNING: Negative pressures at 213:00:00 hrs.
   
  WARNING: Negative pressures at 214:00:00 hrs.
   
  WARNING: Negative pressures at 215:00:00 hrs.
   
  WARNING: Negative pressures at 227:00:00 hrs.
   
  WARNING: Negative pressures at 228:00:00 hrs.
   
  WARNING: Negative pressures at 229:00:00 hrs.
   
  WARNING: Negative pressures at 234:00:00 hrs.
   
  WARNING: Negative pressures at 235:00:00 hrs.
   
  WARNING: Negative pressures at 236:00:00 hrs.
   
  WARNING: Negative pressures at 237:00:00 hrs.
   
  WARNING: Negative pressures at 238:00:00 hrs.
   
  WARNING: Negative pressures at 239:00:00 hrs.
   
  WARNING: Negative pressures at 282:00:00 hrs.
   
  WARNING: Negative pressures at 283:00:00 hrs.
   
  WARNING: Negative pressures at 284:00:00 hrs.
   
  WARNING: Negative pressures at 285:00:00 hrs.
   
  WARNING: Negative pressures at 286:00:00 hrs.
   
  WARNING: Negative pressures at 287:00:00 hrs.
   
  WARNING: Negative pressures at 306:00:00 hrs.
   
  WARNING: Negative pressures at 307:00:00 hrs.
   
  WARNING: Negative pressures at 308:00:00 hrs.
   
  WARNING: Negative pressures at 309:00:00 hrs.
   
  WARNING: Negative pressures at 310:00:00 hrs.
   
  WARNING: Negative pressures at 311:00:00 hrs.
   
  WARNING: Negative pressures at 330:00:00 hrs.
   
  WARNING: Negative pressures at 331:00:00 hrs.
   
  WARNING: Negative pressures at 332:00:00 hrs.
   
  WARNING: Negative pressures at 333:00:00 hrs.
   
  WARNING: Negative pressures at 334:00:00 hrs.
   
  WARNING: Negative pressures at 335:00:00 hrs.
   
  WARNING: Negative pressures at 354:00:00 hrs.
   
  WARNING: Negative pressures at 355:00:00 hrs.
   
  WARNING: Negative pressures at 356:00:00 hrs.
   
  WARNING: Negative pressures at 357:00:00 hrs.
   
  WARNING: Negative pressures at 358:00:00 hrs.
   
  WARNING: Negative pressures at 359:00:00 hrs.
   
  WARNING: Negative pressures at 378:00:00 hrs.
   
  WARNING: Negative pressures at 379:00:00 hrs.
   
  WARNING: Negative pressures at 380:00:00 hrs.
   
  WARNING: Negative pressures at 381:00:00 hrs.
   
  WARNING: Negative pressures at 382:00:00 hrs.
   
  WARNING: Negative pressures at 383:00:00 hrs.
   
  WARNING: Negative pressures at 396:00:00 hrs.
   
  WARNING: Negative pressures at 402:00:00 hrs.
   
  WARNING: Negative pressures at 403:00:00 hrs.
   
  WARNING: Negative pressures at 404:00:00 hrs.
   
  WARNING: Negative pressures at 405:00:00 hrs.
   
  WARNING: Negative pressures at 406:00:00 hrs.
   
  WARNING: Negative pressures at 407:00:00 hrs.
   
  WARNING: Negative pressures at 450:00:00 hrs.
   
  WARNING: Negative pressures at 451:00:00 hrs.
   
  WARNING: Negative pressures at 452:00:00 hrs.
   
  WARNING: Negative pressures at 453:00:00 hrs.
   
  WARNING: Negative pressures at 454:00:00 hrs.
   
  WARNING: Negative pressures at 455:00:00 hrs.
   
  WARNING: Negative pressures at 474:00:00 hrs.
   
  WARNING: Negative pressures at 475:00:00 hrs.
   
  WARNING: Negative pressures at 476:00:00 hrs.
   
  WARNING: Negative pressures at 477:00:00 hrs.
   
  WARNING: Negative pressures at 478:00:00 hrs.
   
  WARNING: Negative pressures at 479:00:00 hrs.
   
  WARNING: Negative pressures at 498:00:00 hrs.
   
  WARNING: Negative pressures at 499:00:00 hrs.
   
  WARNING: Negative pressures at 500:00:00 hrs.
   
  WARNING: Negative pressures at 501:00:00 hrs.
   
  WARNING: Negative pressures at 502:00:00 hrs.
   
  WARNING: Negative pressures at 503:00:00 hrs.
   
  WARNING: Negative pressures at 522:00:00 hrs.
   
  WARNING: Negative pressures at 523:00:00 hrs.
   
  WARNING: Negative pressures at 524:00:00 hrs.
   
  WARNING: Negative pressures at 525:00:00 hrs.
   
  WARNING: Negative pressures at 526:00:00 hrs.
   
  WARNING: Negative pressures at 527:00:00 hrs.
   
  WARNING: Negative pressures at 546:00:00 hrs.
   
  WARNING: Negative pressures at 547:00:00 hrs.
   
  WARNING: Negative pressures at 548:00:00 hrs.
   
  WARNING: Negative pressures at 549:00:00 hrs.
   
  WARNING: Negative pressures at 550:00:00 hrs.
   
  WARNING: Negative pressures at 551:00:00 hrs.
   
  WARNING: Negative pressures at 563:00:00 hrs.
   
  WARNING: Negative pressures at 564:00:00 hrs.
   
  WARNING: Negative pressures at 570:00:00 hrs.
   
  WARNING: Negative pressures at 571:00:00 hrs.
   
  WARNING: Negative pressures at 572:00:00 hrs.
   
  WARNING: Negative pressures at 573:00:00 hrs.
   
  WARNING: Negative pressures at 574:00:00 hrs.
   
  WARNING: Negative pressures at 575:00:00 hrs.
   
  WARNING: Negative pressures at 618:00:00 hrs.
   
  WARNING: Negative pressures at 619:00:00 hrs.
   
  WARNING: Negative pressures at 620:00:00 hrs.
   
  WARNING: Negative pressures at 621:00:00 hrs.
   
  WARNING: Negative pressures at 622:00:00 hrs.
   
  WARNING: Negative pressures at 623:00:00 hrs.
   
  WARNING: Negative pressures at 642:00:00 hrs.
   
  WARNING: Negative pressures at 643:00:00 hrs.
   
  WARNING: Negative pressures at 644:00:00 hrs.
   
  WARNING: Negative pressures at 645:00:00 hrs.
   
  WARNING: Negative pressures at 646:00:00 hrs.
   
  WARNING: Negative pressures at 647:00:00 hrs.
   
  WARNING: Negative pressures at 666:00:00 hrs.
   
  WARNING: Negative pressures at 667:00:00 hrs.
   
  WARNING: Negative pressures at 668:00:00 hrs.
   
  WARNING: Negative pressures at 669:00:00 hrs.
   
  WARNING: Negative pressures at 670:00:00 hrs.
   
  WARNING: Negative pressures at 671:00:00 hrs.
   
  WARNING: Negative pressures at 690:00:00 hrs.
   
  WARNING: Negative pressures at 691:00:00 hrs.
   
  WARNING: Negative pressures at 692:00:00 hrs.
   
  WARNING: Negative pressures at 693:00:00 hrs.
   
  WARNING: Negative pressures at 694:00:00 hrs.
   
  WARNING: Negative pressures at 695:00:00 hrs.
   
  WARNING: Negative pressures at 714:00:00 hrs.
   
  WARNING: Negative pressures at 715:00:00 hrs.
   
  WARNING: Negative pressures at 716:00:00 hrs.
   
  WARNING: Negative pressures at 717:00:00 hrs.
   
  WARNING: Negative pressures at 718:00:00 hrs.
   
  WARNING: Negative pressures at 719:00:00 hrs.
   
  WARNING: Negative pressures at 731:00:00 hrs.
   
  WARNING: Negative pressures at 732:00:00 hrs.
   
  WARNING: Negative pressures at 738:00:00 hrs.
   
  WARNING: Negative pressures at 739:00:00 hrs.
   
  WARNING: Negative pressures at 740:00:00 hrs.
   
  WARNING: Negative pressures at 741:00:00 hrs.
   
  WARNING: Negative pressures at 742:00:00 hrs.
   
  WARNING: Negative pressures at 743:00:00 hrs.
   
  WARNING: Negative pressures at 786:00:00 hrs.
   
  WARNING: Negative pressures at 787:00:00 hrs.
   
  WARNING: Negative pressures at 788:00:00 hrs.
   
  WARNING: Negative pressures at 789:00:00 hrs.
   
  WARNING: Negative pressures at 790:00:00 hrs.
   
  WARNING: Negative pressures at 791:00:00 hrs.
   
  WARNING: Negative pressures at 810:00:00 hrs.
   
  WARNING: Negative pressures at 811:00:00 hrs.
   
  WARNING: Negative pressures at 812:00:00 hrs.
   
  WARNING: Negative pressures at 813:00:00 hrs.
   
  WARNING: Negative pressures at 814:00:00 hrs.
   
  WARNING: Negative pressures at 815:00:00 hrs.
   
  WARNING: Negative pressures at 834:00:00 hrs.
   
  WARNING: Negative pressures at 835:00:00 hrs.
   
  WARNING: Negative pressures at 836:00:00 hrs.
   
  WARNING: Negative pressures at 837:00:00 hrs.
   
  WARNING: Negative pressures at 838:00:00 hrs.
   
  WARNING: Negative pressures at 839:00:00 hrs.
   
  WARNING: Negative pressures at 858:00:00 hrs.
   
  WARNING: Negative pressures at 859:00:00 hrs.
   
  WARNING: Negative pressures at 860:00:00 hrs.
   
  WARNING: Negative pressures at 861:00:00 hrs.
   
  WARNING: Negative pressures at 862:00:00 hrs.
   
  WARNING: Negative pressures at 863:00:00 hrs.
   
  WARNING: Negative pressures at 882:00:00 hrs.
   
  WARNING: Negative pressures at 883:00:00 hrs.
   
  WARNING: Negative pressures at 884:00:00 hrs.
   
  WARNING: Negative pressures at 885:00:00 hrs.
   
  WARNING: Negative pressures at 886:00:00 hrs.
   
  WARNING: Negative pressures at 887:00:00 hrs.
   
  WARNING: Negative pressures at 900:00:00 hrs.
   
  WARNING: Negative pressures at 906:00:00 hrs.
   
  WARNING: Negative pressures at 907:00:00 hrs.
   
  WARNING: Negative pressures at 908:00:00 hrs.
   
  WARNING: Negative pressures at 909:00:00 hrs.
   
  WARNING: Negative pressures at 910:00:00 hrs.
   
  WARNING: Negative pressures at 911:00:00 hrs.
   
  WARNING: Negative pressures at 954:00:00 hrs.
   
  WARNING: Negative pressures at 955:00:00 hrs.
   
  WARNING: Negative pressures at 956:00:00 hrs.
   
  WARNING: Negative pressures at 957:00:00 hrs.
   
  WARNING: Negative pressures at 958:00:00 hrs.
   
  WARNING: Negative pressures at 959:00:00 hrs.
   
  WARNING: Negative pressures at 978:00:00 hrs.
   
  WARNING: Negative pressures at 979:00:00 hrs.
   
  WARNING: Negative pressures at 980:00:00 hrs.
   
  WARNING: Negative pressures at 981:00:00 hrs.
   
  WARNING: Negative pressures at 982:00:00 hrs.
   
  WARNING: Negative pressures at 983:00:00 hrs.
   
  WARNING: Negative pressures at 1002:00:00 hrs.
   
  WARNING: Negative pressures at 1003:00:00 hrs.
   
  WARNING: Negative pressures at 1004:00:00 hrs.
   
  WARNING: Negative pressures at 1005:00:00 hrs.
   
  WARNING: Negative pressures at 1006:00:00 hrs.
   
  WARNING: Negative pressures at 1007:00:00 hrs.
   
  WARNING: Negative pressures at 1026:00:00 hrs.
   
  WARNING: Negative pressures at 1027:00:00 hrs.
   
  WARNING: Negative pressures at 1028:00:00 hrs.
   
  WARNING: Negative pressures at 1029:00:00 hrs.
   
  WARNING: Negative pressures at 1030:00:00 hrs.
   
  WARNING: Negative pressures at 1031:00:00 hrs.
   
  WARNING: Negative pressures at 1050:00:00 hrs.
   
  WARNING: Negative pressures at 1051:00:00 hrs.
   
  WARNING: Negative pressures at 1052:00:00 hrs.
   
  WARNING: Negative pressures at 1053:00:00 hrs.
   
  WARNING: Negative pressures at 1054:00:00 hrs.
   
  WARNING: Negative pressures at 1055:00:00 hrs.
   
  WARNING: Negative pressures at 1067:00:00 hrs.
   
  WARNING: Negative pressures at 1068:00:00 hrs.
   
  WARNING: Negative pressures at 1069:00:00 hrs.
   
  WARNING: Negative pressures at 1074:00:00 hrs.
   
  WARNING: Negative pressures at 1075:00:00 hrs.
   
  WARNING: Negative pressures at 1076:00:00 hrs.
   
  WARNING: Negative pressures at 1077:00:00 hrs.
   
  WARNING: Negative pressures at 1078:00:00 hrs.
   
  WARNING: Negative pressures at 1079:00:00 hrs.
   
  WARNING: Negative pressures at 1122:00:00 hrs.
   
  WARNING: Negative pressures at 1123:00:00 hrs.
   
  WARNING: Negative pressures at 1124:00:00 hrs.
   
  WARNING: Negative pressures at 1125:00:00 hrs.
   
  WARNING: Negative pressures at 1126:00:00 hrs.
   
  WARNING: Negative pressures at 1127:00:00 hrs.
   
  WARNING: Negative pressures at 1146:00:00 hrs.
   
  WARNING: Negative pressures at 1147:00:00 hrs.
   
  WARNING: Negative pressures at 1148:00:00 hrs.
   
  WARNING: Negative pressures at 1149:00:00 hrs.
   
  WARNING: Negative pressures at 1150:00:00 hrs.
   
  WARNING: Negative pressures at 1151:00:00 hrs.
   
  WARNING: Negative pressures at 1170:00:00 hrs.
   
  WARNING: Negative pressures at 1171:00:00 hrs.
   
  WARNING: Negative pressures at 1172:00:00 hrs.
   
  WARNING: Negative pressures at 1173:00:00 hrs.
   
  WARNING: Negative pressures at 1174:00:00 hrs.
   
  WARNING: Negative pressures at 1175:00:00 hrs.
   
  WARNING: Negative pressures at 1194:00:00 hrs.
   
  WARNING: Negative pressures at 1195:00:00 hrs.
   
  WARNING: Negative pressures at 1196:00:00 hrs.
   
  WARNING: Negative pressures at 1197:00:00 hrs.
   
  WARNING: Negative pressures at 1198:00:00 hrs.
   
  WARNING: Negative pressures at 1199:00:00 hrs.
   
  WARNING: Negative pressures at 1218:00:00 hrs.
   
  WARNING: Negative pressures at 1219:00:00 hrs.
   
  WARNING: Negative pressures at 1220:00:00 hrs.
   
  WARNING: Negative pressures at 1221:00:00 hrs.
   
  WARNING: Negative pressures at 1222:00:00 hrs.
   
  WARNING: Negative pressures at 1223:00:00 hrs.
   
  WARNING: Negative pressures at 1236:00:00 hrs.
   
  WARNING: Negative pressures at 1242:00:00 hrs.
   
  WARNING: Negative pressures at 1243:00:00 hrs.
   
  WARNING: Negative pressures at 1244:00:00 hrs.
   
  WARNING: Negative pressures at 1245:00:00 hrs.
   
  WARNING: Negative pressures at 1246:00:00 hrs.
   
  WARNING: Negative pressures at 1247:00:00 hrs.
   
  WARNING: Negative pressures at 1290:00:00 hrs.
   
  WARNING: Negative pressures at 1291:00:00 hrs.
   
  WARNING: Negative pressures at 1292:00:00 hrs.
   
  WARNING: Negative pressures at 1293:00:00 hrs.
   
  WARNING: Negative pressures at 1294:00:00 hrs.
   
  WARNING: Negative pressures at 1295:00:00 hrs.
   
  WARNING: Negative pressures at 1314:00:00 hrs.
   
  WARNING: Negative pressures at 1315:00:00 hrs.
   
  WARNING: Negative pressures at 1316:00:00 hrs.
   
  WARNING: Negative pressures at 1317:00:00 hrs.
   
  WARNING: Negative pressures at 1338:00:00 hrs.
   
  WARNING: Negative pressures at 1339:00:00 hrs.
   
  WARNING: Negative pressures at 1340:00:00 hrs.
   
  WARNING: Negative pressures at 1341:00:00 hrs.
   
  WARNING: Negative pressures at 1362:00:00 hrs.
   
  WARNING: Negative pressures at 1364:00:00 hrs.
   
  WARNING: Negative pressures at 1365:00:00 hrs.
   
  WARNING: Negative pressures at 1386:00:00 hrs.
   
  WARNING: Negative pressures at 1388:00:00 hrs.
   
  WARNING: Negative pressures at 1389:00:00 hrs.
   
  WARNING: Negative pressures at 1412:00:00 hrs.
   
  WARNING: Negative pressures at 1413:00:00 hrs.
   
  WARNING: Negative pressures at 1458:00:00 hrs.
   
  WARNING: Negative pressures at 1459:00:00 hrs.
   
  WARNING: Negative pressures at 1460:00:00 hrs.
   
  WARNING: Negative pressures at 1461:00:00 hrs.
   
  WARNING: Negative pressures at 1482:00:00 hrs.
   
  WARNING: Negative pressures at 1483:00:00 hrs.
   
  WARNING: Negative pressures at 1484:00:00 hrs.
   
  WARNING: Negative pressures at 1485:00:00 hrs.
   
  WARNING: Negative pressures at 1506:00:00 hrs.
   
  WARNING: Negative pressures at 1507:00:00 hrs.
   
  WARNING: Negative pressures at 1508:00:00 hrs.
   
  WARNING: Negative pressures at 1509:00:00 hrs.
   
  WARNING: Negative pressures at 1530:00:00 hrs.
   
  WARNING: Negative pressures at 1531:00:00 hrs.
   
  WARNING: Negative pressures at 1532:00:00 hrs.
   
  WARNING: Negative pressures at 1533:00:00 hrs.
   
  WARNING: Negative pressures at 1534:00:00 hrs.
   
  WARNING: Negative pressures at 1535:00:00 hrs.
   
  WARNING: Negative pressures at 1554:00:00 hrs.
   
  WARNING: Negative pressures at 1555:00:00 hrs.
   
  WARNING: Negative pressures at 1556:00:00 hrs.
   
  WARNING: Negative pressures at 1557:00:00 hrs.
   
  WARNING: Negative pressures at 1558:00:00 hrs.
   
  WARNING: Negative pressures at 1559:00:00 hrs.
   
  WARNING: Negative pressures at 1572:00:00 hrs.
   
  WARNING: Negative pressures at 1578:00:00 hrs.
   
  WARNING: Negative pressures at 1579:00:00 hrs.
   
  WARNING: Negative pressures at 1580:00:00 hrs.
   
  WARNING: Negative pressures at 1581:00:00 hrs.
   
  WARNING: Negative pressures at 1582:00:00 hrs.
   
  WARNING: Negative pressures at 1583:00:00 hrs.
   
  WARNING: Negative pressures at 1626:00:00 hrs.
   
  WARNING: Negative pressures at 1627:00:00 hrs.
   
  WARNING: Negative pressures at 1628:00:00 hrs.
   
  WARNING: Negative pressures at 1629:00:00 hrs.
   
  WARNING: Negative pressures at 1630:00:00 hrs.
   
  WARNING: Negative pressures at 1631:00:00 hrs.
   
  WARNING: Negative pressures at 1650:00:00 hrs.
   
  WARNING: Negative pressures at 1651:00:00 hrs.
   
  WARNING: Negative pressures at 1652:00:00 hrs.
   
  WARNING: Negative pressures at 1653:00:00 hrs.
   
  WARNING: Negative pressures at 1654:00:00 hrs.
   
  WARNING: Negative pressures at 1655:00:00 hrs.
   
  WARNING: Negative pressures at 1674:00:00 hrs.
   
  WARNING: Negative pressures at 1675:00:00 hrs.
   
  WARNING: Negative pressures at 1676:00:00 hrs.
   
  WARNING: Negative pressures at 1677:00:00 hrs.
   
  WARNING: Negative pressures at 1678:00:00 hrs.
   
  WARNING: Negative pressures at 1679:00:00 hrs.
   
  WARNING: Negative pressures at 1698:00:00 hrs.
   
  WARNING: Negative pressures at 1699:00:00 hrs.
   
  WARNING: Negative pressures at 1700:00:00 hrs.
   
  WARNING: Negative pressures at 1701:00:00 hrs.
   
  WARNING: Negative pressures at 1702:00:00 hrs.
   
  WARNING: Negative pressures at 1703:00:00 hrs.
   
  WARNING: Negative pressures at 1722:00:00 hrs.
   
  WARNING: Negative pressures at 1723:00:00 hrs.
   
  WARNING: Negative pressures at 1724:00:00 hrs.
   
  WARNING: Negative pressures at 1725:00:00 hrs.
   
  WARNING: Negative pressures at 1726:00:00 hrs.
   
  WARNING: Negative pressures at 1727:00:00 hrs.
   
  WARNING: Negative pressures at 1740:00:00 hrs.
   
  WARNING: Negative pressures at 1746:00:00 hrs.
   
  WARNING: Negative pressures at 1747:00:00 hrs.
   
  WARNING: Negative pressures at 1748:00:00 hrs.
   
  WARNING: Negative pressures at 1749:00:00 hrs.
   
  WARNING: Negative pressures at 1750:00:00 hrs.
   
  WARNING: Negative pressures at 1794:00:00 hrs.
   
  WARNING: Negative pressures at 1795:00:00 hrs.
   
  WARNING: Negative pressures at 1796:00:00 hrs.
   
  WARNING: Negative pressures at 1797:00:00 hrs.
   
  WARNING: Negative pressures at 1818:00:00 hrs.
   
  WARNING: Negative pressures at 1820:00:00 hrs.
   
  WARNING: Negative pressures at 1821:00:00 hrs.
   
  WARNING: Negative pressures at 1844:00:00 hrs.
   
  WARNING: Negative pressures at 1845:00:00 hrs.
   
  WARNING: Negative pressures at 1869:00:00 hrs.
   
  WARNING: Negative pressures at 2181:00:00 hrs.
   
  WARNING: Negative pressures at 2205:00:00 hrs.
   
  WARNING: Negative pressures at 2301:00:00 hrs.
   
  WARNING: Negative pressures at 2469:00:00 hrs.
   
  WARNING: Negative pressures at 6957:00:00 hrs.
   
  WARNING: Negative pressures at 7002:00:00 hrs.
   
  WARNING: Negative pressures at 7004:00:00 hrs.
   
  WARNING: Negative pressures at 7005:00:00 hrs.
   
  WARNING: Negative pressures at 7026:00:00 hrs.
   
  WARNING: Negative pressures at 7028:00:00 hrs.
   
  WARNING: Negative pressures at 7029:00:00 hrs.
   
  WARNING: Negative pressures at 7050:00:00 hrs.
   
  WARNING: Negative pressures at 7052:00:00 hrs.
   
  WARNING: Negative pressures at 7053:00:00 hrs.
   
  WARNING: Negative pressures at 7076:00:00 hrs.
   
  WARNING: Negative pressures at 7077:00:00 hrs.
   
  WARNING: Negative pressures at 7100:00:00 hrs.
   
  WARNING: Negative pressures at 7101:00:00 hrs.
   
  WARNING: Negative pressures at 7124:00:00 hrs.
   
  WARNING: Negative pressures at 7125:00:00 hrs.
   
  WARNING: Negative pressures at 7170:00:00 hrs.
   
  WARNING: Negative pressures at 7171:00:00 hrs.
   
  WARNING: Negative pressures at 7172:00:00 hrs.
   
  WARNING: Negative pressures at 7173:00:00 hrs.
   
  WARNING: Negative pressures at 7174:00:00 hrs.
   
  WARNING: Negative pressures at 7175:00:00 hrs.
   
  WARNING: Negative pressures at 7194:00:00 hrs.
   
  WARNING: Negative pressures at 7195:00:00 hrs.
   
  WARNING: Negative pressures at 7196:00:00 hrs.
   
  WARNING: Negative pressures at 7197:00:00 hrs.
   
  WARNING: Negative pressures at 7218:00:00 hrs.
   
  WARNING: Negative pressures at 7219:00:00 hrs.
   
  WARNING: Negative pressures at 7220:00:00 hrs.
   
  WARNING: Negative pressures at 7221:00:00 hrs.
   
  WARNING: Negative pressures at 7242:00:00 hrs.
   
  WARNING: Negative pressures at 7244:00:00 hrs.
   
  WARNING: Negative pressures at 7245:00:00 hrs.
   
  WARNING: Negative pressures at 7268:00:00 hrs.
   
  WARNING: Negative pressures at 7269:00:00 hrs.
   
  WARNING: Negative pressures at 7293:00:00 hrs.
   
  WARNING: Negative pressures at 7338:00:00 hrs.
   
  WARNING: Negative pressures at 7340:00:00 hrs.
   
  WARNING: Negative pressures at 7341:00:00 hrs.
   
  WARNING: Negative pressures at 7364:00:00 hrs.
   
  WARNING: Negative pressures at 7365:00:00 hrs.
   
  WARNING: Negative pressures at 7389:00:00 hrs.
   
  WARNING: Negative pressures at 7413:00:00 hrs.
   
  WARNING: Negative pressures at 7461:00:00 hrs.
   
  WARNING: Negative pressures at 7506:00:00 hrs.
   
  WARNING: Negative pressures at 7507:00:00 hrs.
   
  WARNING: Negative pressures at 7508:00:00 hrs.
   
  WARNING: Negative pressures at 7509:00:00 hrs.
   
  WARNING: Negative pressures at 7530:00:00 hrs.
   
  WARNING: Negative pressures at 7531:00:00 hrs.
   
  WARNING: Negative pressures at 7532:00:00 hrs.
   
  WARNING: Negative pressures at 7533:00:00 hrs.
   
  WARNING: Negative pressures at 7554:00:00 hrs.
   
  WARNING: Negative pressures at 7556:00:00 hrs.
   
  WARNING: Negative pressures at 7557:00:00 hrs.
   
  WARNING: Negative pressures at 7581:00:00 hrs.
   
  WARNING: Negative pressures at 7605:00:00 hrs.
   
  WARNING: Negative pressures at 7629:00:00 hrs.
   
  WARNING: Negative pressures at 7674:00:00 hrs.
   
  WARNING: Negative pressures at 7675:00:00 hrs.
   
  WARNING: Negative pressures at 7676:00:00 hrs.
   
  WARNING: Negative pressures at 7677:00:00 hrs.
   
  WARNING: Negative pressures at 7698:00:00 hrs.
   
  WARNING: Negative pressures at 7699:00:00 hrs.
   
  WARNING: Negative pressures at 7700:00:00 hrs.
   
  WARNING: Negative pressures at 7701:00:00 hrs.
   
  WARNING: Negative pressures at 7722:00:00 hrs.
   
  WARNING: Negative pressures at 7723:00:00 hrs.
   
  WARNING: Negative pressures at 7724:00:00 hrs.
   
  WARNING: Negative pressures at 7725:00:00 hrs.
   
  WARNING: Negative pressures at 7746:00:00 hrs.
   
  WARNING: Negative pressures at 7747:00:00 hrs.
   
  WARNING: Negative pressures at 7748:00:00 hrs.
   
  WARNING: Negative pressures at 7749:00:00 hrs.
   
  WARNING: Negative pressures at 7770:00:00 hrs.
   
  WARNING: Negative pressures at 7771:00:00 hrs.
   
  WARNING: Negative pressures at 7772:00:00 hrs.
   
  WARNING: Negative pressures at 7773:00:00 hrs.
   
  WARNING: Negative pressures at 7788:00:00 hrs.
   
  WARNING: Negative pressures at 7794:00:00 hrs.
   
  WARNING: Negative pressures at 7795:00:00 hrs.
   
  WARNING: Negative pressures at 7796:00:00 hrs.
   
  WARNING: Negative pressures at 7797:00:00 hrs.
   
  WARNING: Negative pressures at 7842:00:00 hrs.
   
  WARNING: Negative pressures at 7843:00:00 hrs.
   
  WARNING: Negative pressures at 7844:00:00 hrs.
   
  WARNING: Negative pressures at 7845:00:00 hrs.
   
  WARNING: Negative pressures at 7846:00:00 hrs.
   
  WARNING: Negative pressures at 7847:00:00 hrs.
   
  WARNING: Negative pressures at 7866:00:00 hrs.
   
  WARNING: Negative pressures at 7867:00:00 hrs.
   
  WARNING: Negative pressures at 7868:00:00 hrs.
   
  WARNING: Negative pressures at 7869:00:00 hrs.
   
  WARNING: Negative pressures at 7870:00:00 hrs.
   
  WARNING: Negative pressures at 7871:00:00 hrs.
   
  WARNING: Negative pressures at 7890:00:00 hrs.
   
  WARNING: Negative pressures at 7891:00:00 hrs.
   
  WARNING: Negative pressures at 7892:00:00 hrs.
   
  WARNING: Negative pressures at 7893:00:00 hrs.
   
  WARNING: Negative pressures at 7894:00:00 hrs.
   
  WARNING: Negative pressures at 7895:00:00 hrs.
   
  WARNING: Negative pressures at 7914:00:00 hrs.
   
  WARNING: Negative pressures at 7915:00:00 hrs.
   
  WARNING: Negative pressures at 7916:00:00 hrs.
   
  WARNING: Negative pressures at 7917:00:00 hrs.
   
  WARNING: Negative pressures at 7918:00:00 hrs.
   
  WARNING: Negative pressures at 7919:00:00 hrs.
   
  WARNING: Negative pressures at 7938:00:00 hrs.
   
  WARNING: Negative pressures at 7939:00:00 hrs.
   
  WARNING: Negative pressures at 7940:00:00 hrs.
   
  WARNING: Negative pressures at 7941:00:00 hrs.
   
  WARNING: Negative pressures at 7942:00:00 hrs.
   
  WARNING: Negative pressures at 7943:00:00 hrs.
   
  WARNING: Negative pressures at 7956:00:00 hrs.
   
  WARNING: Negative pressures at 7962:00:00 hrs.
   
  WARNING: Negative pressures at 7963:00:00 hrs.
   
  WARNING: Negative pressures at 7964:00:00 hrs.
   
  WARNING: Negative pressures at 7965:00:00 hrs.
   
  WARNING: Negative pressures at 7966:00:00 hrs.
   
  WARNING: Negative pressures at 7967:00:00 hrs.
   
  WARNING: Negative pressures at 8010:00:00 hrs.
   
  WARNING: Negative pressures at 8011:00:00 hrs.
   
  WARNING: Negative pressures at 8012:00:00 hrs.
   
  WARNING: Negative pressures at 8013:00:00 hrs.
   
  WARNING: Negative pressures at 8014:00:00 hrs.
   
  WARNING: Negative pressures at 8015:00:00 hrs.
   
  WARNING: Negative pressures at 8034:00:00 hrs.
   
  WARNING: Negative pressures at 8035:00:00 hrs.
   
  WARNING: Negative pressures at 8036:00:00 hrs.
   
  WARNING: Negative pressures at 8037:00:00 hrs.
   
  WARNING: Negative pressures at 8038:00:00 hrs.
   
  WARNING: Negative pressures at 8039:00:00 hrs.
   
  WARNING: Negative pressures at 8058:00:00 hrs.
   
  WARNING: Negative pressures at 8059:00:00 hrs.
   
  WARNING: Negative pressures at 8060:00:00 hrs.
   
  WARNING: Negative pressures at 8061:00:00 hrs.
   
  WARNING: Negative pressures at 8062:00:00 hrs.
   
  WARNING: Negative pressures at 8063:00:00 hrs.
   
  WARNING: Negative pressures at 8082:00:00 hrs.
   
  WARNING: Negative pressures at 8083:00:00 hrs.
   
  WARNING: Negative pressures at 8084:00:00 hrs.
   
  WARNING: Negative pressures at 8085:00:00 hrs.
   
  WARNING: Negative pressures at 8086:00:00 hrs.
   
  WARNING: Negative pressures at 8087:00:00 hrs.
   
  WARNING: Negative pressures at 8106:00:00 hrs.
   
  WARNING: Negative pressures at 8107:00:00 hrs.
   
  WARNING: Negative pressures at 8108:00:00 hrs.
   
  WARNING: Negative pressures at 8109:00:00 hrs.
   
  WARNING: Negative pressures at 8110:00:00 hrs.
   
  WARNING: Negative pressures at 8111:00:00 hrs.
   
  WARNING: Negative pressures at 8123:00:00 hrs.
   
  WARNING: Negative pressures at 8124:00:00 hrs.
   
  WARNING: Negative pressures at 8130:00:00 hrs.
   
  WARNING: Negative pressures at 8131:00:00 hrs.
   
  WARNING: Negative pressures at 8132:00:00 hrs.
   
  WARNING: Negative pressures at 8133:00:00 hrs.
   
  WARNING: Negative pressures at 8134:00:00 hrs.
   
  WARNING: Negative pressures at 8135:00:00 hrs.
   
  WARNING: Negative pressures at 8178:00:00 hrs.
   
  WARNING: Negative pressures at 8179:00:00 hrs.
   
  WARNING: Negative pressures at 8180:00:00 hrs.
   
  WARNING: Negative pressures at 8181:00:00 hrs.
   
  WARNING: Negative pressures at 8182:00:00 hrs.
   
  WARNING: Negative pressures at 8183:00:00 hrs.
   
  WARNING: Negative pressures at 8202:00:00 hrs.
   
  WARNING: Negative pressures at 8203:00:00 hrs.
   
  WARNING: Negative pressures at 8204:00:00 hrs.
   
  WARNING: Negative pressures at 8205:00:00 hrs.
   
  WARNING: Negative pressures at 8206:00:00 hrs.
   
  WARNING: Negative pressures at 8207:00:00 hrs.
   
  WARNING: Negative pressures at 8226:00:00 hrs.
   
  WARNING: Negative pressures at 8227:00:00 hrs.
   
  WARNING: Negative pressures at 8228:00:00 hrs.
   
  WARNING: Negative pressures at 8229:00:00 hrs.
   
  WARNING: Negative pressures at 8230:00:00 hrs.
   
  WARNING: Negative pressures at 8231:00:00 hrs.
   
  WARNING: Negative pressures at 8250:00:00 hrs.
   
  WARNING: Negative pressures at 8251:00:00 hrs.
   
  WARNING: Negative pressures at 8252:00:00 hrs.
   
  WARNING: Negative pressures at 8253:00:00 hrs.
   
  WARNING: Negative pressures at 8254:00:00 hrs.
   
  WARNING: Negative pressures at 8255:00:00 hrs.
   
  WARNING: Negative pressures at 8274:00:00 hrs.
   
  WARNING: Negative pressures at 8275:00:00 hrs.
   
  WARNING: Negative pressures at 8276:00:00 hrs.
   
  WARNING: Negative pressures at 8277:00:00 hrs.
   
  WARNING: Negative pressures at 8278:00:00 hrs.
   
  WARNING: Negative pressures at 8279:00:00 hrs.
   
  WARNING: Negative pressures at 8292:00:00 hrs.
   
  WARNING: Negative pressures at 8298:00:00 hrs.
   
  WARNING: Negative pressures at 8299:00:00 hrs.
   
  WARNING: Negative pressures at 8300:00:00 hrs.
   
  WARNING: Negative pressures at 8301:00:00 hrs.
   
  WARNING: Negative pressures at 8302:00:00 hrs.
   
  WARNING: Negative pressures at 8303:00:00 hrs.
   
  WARNING: Negative pressures at 8346:00:00 hrs.
   
  WARNING: Negative pressures at 8347:00:00 hrs.
   
  WARNING: Negative pressures at 8348:00:00 hrs.
   
  WARNING: Negative pressures at 8349:00:00 hrs.
   
  WARNING: Negative pressures at 8350:00:00 hrs.
   
  WARNING: Negative pressures at 8351:00:00 hrs.
   
  WARNING: Negative pressures at 8370:00:00 hrs.
   
  WARNING: Negative pressures at 8371:00:00 hrs.
   
  WARNING: Negative pressures at 8372:00:00 hrs.
   
  WARNING: Negative pressures at 8373:00:00 hrs.
   
  WARNING: Negative pressures at 8374:00:00 hrs.
   
  WARNING: Negative pressures at 8375:00:00 hrs.
   
  WARNING: Negative pressures at 8394:00:00 hrs.
   
  WARNING: Negative pressures at 8395:00:00 hrs.
   
  WARNING: Negative pressures at 8396:00:00 hrs.
   
  WARNING: Negative pressures at 8397:00:00 hrs.
   
  WARNING: Negative pressures at 8398:00:00 hrs.
   
  WARNING: Negative pressures at 8399:00:00 hrs.
   
  WARNING: Negative pressures at 8418:00:00 hrs.
   
  WARNING: Negative pressures at 8419:00:00 hrs.
   
  WARNING: Negative pressures at 8420:00:00 hrs.
   
  WARNING: Negative pressures at 8421:00:00 hrs.
   
  WARNING: Negative pressures at 8422:00:00 hrs.
   
  WARNING: Negative pressures at 8423:00:00 hrs.
   
  WARNING: Negative pressures at 8442:00:00 hrs.
   
  WARNING: Negative pressures at 8443:00:00 hrs.
   
  WARNING: Negative pressures at 8444:00:00 hrs.
   
  WARNING: Negative pressures at 8445:00:00 hrs.
   
  WARNING: Negative pressures at 8446:00:00 hrs.
   
  WARNING: Negative pressures at 8447:00:00 hrs.
   
  WARNING: Negative pressures at 8456:00:00 hrs.
   
  WARNING: Negative pressures at 8459:00:00 hrs.
   
  WARNING: Negative pressures at 8460:00:00 hrs.
   
  WARNING: Negative pressures at 8466:00:00 hrs.
   
  WARNING: Negative pressures at 8467:00:00 hrs.
   
  WARNING: Negative pressures at 8468:00:00 hrs.
   
  WARNING: Negative pressures at 8469:00:00 hrs.
   
  WARNING: Negative pressures at 8470:00:00 hrs.
   
  WARNING: Negative pressures at 8471:00:00 hrs.
   
  WARNING: Negative pressures at 8514:00:00 hrs.
   
  WARNING: Negative pressures at 8515:00:00 hrs.
   
  WARNING: Negative pressures at 8516:00:00 hrs.
   
  WARNING: Negative pressures at 8517:00:00 hrs.
   
  WARNING: Negative pressures at 8518:00:00 hrs.
   
  WARNING: Negative pressures at 8519:00:00 hrs.
   
  WARNING: Negative pressures at 8538:00:00 hrs.
   
  WARNING: Negative pressures at 8539:00:00 hrs.
   
  WARNING: Negative pressures at 8540:00:00 hrs.
   
  WARNING: Negative pressures at 8541:00:00 hrs.
   
  WARNING: Negative pressures at 8542:00:00 hrs.
   
  WARNING: Negative pressures at 8543:00:00 hrs.
   
  WARNING: Negative pressures at 8562:00:00 hrs.
   
  WARNING: Negative pressures at 8563:00:00 hrs.
   
  WARNING: Negative pressures at 8564:00:00 hrs.
   
  WARNING: Negative pressures at 8565:00:00 hrs.
   
  WARNING: Negative pressures at 8566:00:00 hrs.
   
  WARNING: Negative pressures at 8567:00:00 hrs.
   
  WARNING: Negative pressures at 8586:00:00 hrs.
   
  WARNING: Negative pressures at 8587:00:00 hrs.
   
  WARNING: Negative pressures at 8588:00:00 hrs.
   
  WARNING: Negative pressures at 8589:00:00 hrs.
   
  WARNING: Negative pressures at 8590:00:00 hrs.
   
  WARNING: Negative pressures at 8591:00:00 hrs.
   
  WARNING: Negative pressures at 8610:00:00 hrs.
   
  WARNING: Negative pressures at 8611:00:00 hrs.
   
  WARNING: Negative pressures at 8612:00:00 hrs.
   
  WARNING: Negative pressures at 8613:00:00 hrs.
   
  WARNING: Negative pressures at 8614:00:00 hrs.
   
  WARNING: Negative pressures at 8615:00:00 hrs.
   
  WARNING: Negative pressures at 8624:00:00 hrs.
   
  WARNING: Negative pressures at 8627:00:00 hrs.
   
  WARNING: Negative pressures at 8628:00:00 hrs.
   
  WARNING: Negative pressures at 8629:00:00 hrs.
   
  WARNING: Negative pressures at 8634:00:00 hrs.
   
  WARNING: Negative pressures at 8635:00:00 hrs.
   
  WARNING: Negative pressures at 8636:00:00 hrs.
   
  WARNING: Negative pressures at 8637:00:00 hrs.
   
  WARNING: Negative pressures at 8638:00:00 hrs.
   
  WARNING: Negative pressures at 8639:00:00 hrs.
   
  WARNING: Negative pressures at 8682:00:00 hrs.
   
  WARNING: Negative pressures at 8683:00:00 hrs.
   
  WARNING: Negative pressures at 8684:00:00 hrs.
   
  WARNING: Negative pressures at 8685:00:00 hrs.
   
  WARNING: Negative pressures at 8686:00:00 hrs.
   
  WARNING: Negative pressures at 8687:00:00 hrs.
   
  WARNING: Negative pressures at 8706:00:00 hrs.
   
  WARNING: Negative pressures at 8707:00:00 hrs.
   
  WARNING: Negative pressures at 8708:00:00 hrs.
   
  WARNING: Negative pressures at 8709:00:00 hrs.
   
  WARNING: Negative pressures at 8710:00:00 hrs.
   
  WARNING: Negative pressures at 8711:00:00 hrs.
   
  WARNING: Negative pressures at 8730:00:00 hrs.
   
  WARNING: Negative pressures at 8731:00:00 hrs.
   
  WARNING: Negative pressures at 8732:00:00 hrs.
   
  WARNING: Negative pressures at 8733:00:00 hrs.
   
  WARNING: Negative pressures at 8734:00:00 hrs.
   
  WARNING: Negative pressures at 8735:00:00 hrs.
   
  WARNING: Negative pressures at 8754:00:00 hrs.
   
  WARNING: Negative pressures at 8755:00:00 hrs.
   
  WARNING: Negative pressures at 8756:00:00 hrs.
   
  WARNING: Negative pressures at 8757:00:00 hrs.
   
  WARNING: Negative pressures at 8758:00:00 hrs.
   
  WARNING: Negative pressures at 8759:00:00 hrs.
   
  Analysis ended Mon Sep  1 23:58:36 2025
