  Page 1                                    Tue Sep  2 00:00:53 2025

  ******************************************************************
  *                           E P A N E T                          *
  *                   Hydraulic and Water Quality                  *
  *                   Analysis for Pipe Networks                   *
  *                         Version 2.2                            *
  ******************************************************************
  
   
      Input Data File ................... temp.inp
      Number of Junctions................ 38
      Number of Reservoirs............... 1
      Number of Tanks ................... 0
      Number of Pipes ................... 38
      Number of Pumps ................... 0
      Number of Valves .................. 0
      Headloss Formula .................. Hazen-Williams
      Nodal Demand Model ................ DDA
      Hydraulic Timestep ................ 1.00 hrs
      Hydraulic Accuracy ................ 0.010000
      Status Check Frequency ............ 2
      Maximum Trials Checked ............ 10
      Damping Limit Threshold ........... 0.000000
      Maximum Trials .................... 100
      Quality Analysis .................. None
      Specific Gravity .................. 1.00
      Relative Kinematic Viscosity ...... 1.00
      Relative Chemical Diffusivity ..... 1.00
      Demand Multiplier ................. 1.00
      Total Duration .................... 8759.00 hrs
      Reporting Criteria:
         No Nodes
         No Links
   
  Analysis begun Tue Sep  2 00:00:53 2025

  WARNING: Negative pressures at 3837:00:00 hrs.
   
  WARNING: Negative pressures at 3861:00:00 hrs.
   
  WARNING: Negative pressures at 4245:00:00 hrs.
   
  WARNING: Negative pressures at 4260:00:00 hrs.
   
  WARNING: Negative pressures at 4269:00:00 hrs.
   
  WARNING: Negative pressures at 4317:00:00 hrs.
   
  WARNING: Negative pressures at 4341:00:00 hrs.
   
  WARNING: Negative pressures at 4364:00:00 hrs.
   
  WARNING: Negative pressures at 4365:00:00 hrs.
   
  WARNING: Negative pressures at 4389:00:00 hrs.
   
  WARNING: Negative pressures at 4413:00:00 hrs.
   
  WARNING: Negative pressures at 4437:00:00 hrs.
   
  WARNING: Negative pressures at 4485:00:00 hrs.
   
  WARNING: Negative pressures at 4509:00:00 hrs.
   
  WARNING: Negative pressures at 4533:00:00 hrs.
   
  WARNING: Negative pressures at 4557:00:00 hrs.
   
  WARNING: Negative pressures at 4596:00:00 hrs.
   
  WARNING: Negative pressures at 4605:00:00 hrs.
   
  WARNING: Negative pressures at 4677:00:00 hrs.
   
  WARNING: Negative pressures at 4701:00:00 hrs.
   
  WARNING: Negative pressures at 4821:00:00 hrs.
   
  WARNING: Negative pressures at 4845:00:00 hrs.
   
  WARNING: Negative pressures at 5181:00:00 hrs.
   
  WARNING: Negative pressures at 5359:00:00 hrs.
   
  WARNING: Negative pressures at 5360:00:00 hrs.
   
  WARNING: Negative pressures at 5565:00:00 hrs.
   
  WARNING: Negative pressures at 5613:00:00 hrs.
   
  WARNING: Negative pressures at 5709:00:00 hrs.
   
  Analysis ended Tue Sep  2 00:00:53 2025
